62
Lattice="11.2714 0.0 0.0 -0.043430255 7.399172541 0.0 -0.324002368 -1.991989071 9.511957932000001" Properties=species:S:1:pos:R:3 pbc="T T T"
Ca      -0.19252300      -0.60480400       4.72122000      
Ca       1.45736000      -0.97022100       1.11919000      
Ca       1.50371000       2.80948000       1.10941000      
Ca       3.81820000       2.68852000       8.41335000      
Ca       3.84849000      -0.98983400       8.39347000      
Ca       5.40343000       3.16192000       4.75174000      
Ca       6.98884000       2.67678000       1.11172000      
Ca       7.09014000      -0.94567000       1.06199000      
Ca       9.52576000      -1.03836000       8.31755000      
Ca       9.57249000       2.66379000       8.38152000      
Si       0.95103800      -2.64102000       7.51594000      
Si       0.97998600       0.49789400       7.46777000      
Si       1.82736000       2.71984000       5.41645000      
Si       3.46744000      -0.94656300       4.20674000      
Si       4.24677000       4.26843000       2.15150000      
Si       4.35887000       1.09809000       2.03099000      
Si       6.59887000       1.08119000       7.44341000      
Si       6.63928000       4.26000000       7.38450000      
Si       7.47361000      -0.99324800       5.30963000      
Si       9.02484000       2.69518000       4.08248000      
Si       9.93795000       0.53009400       2.07451000      
Si      10.01480000       4.75133000       1.97305000      
O       -0.34794800       4.50581000       8.46208000      
O       -0.32725300       0.89051400       8.26040000      
O       -0.01989620       1.11529000       1.24786000      
O        0.09633920       4.55971000       1.11430000      
O        0.64069000      -1.03759000       6.88155000      
O        0.84634100       3.73383000       6.20194000      
O        1.19418000       1.38547000       6.09386000      
O        1.50645000       2.87899000       3.85231000      
O        1.85271000      -0.85618200       3.84659000      
O        2.19374000       0.65367200       8.47981000      
O        2.27833000      -2.75819000       8.44790000      
O        2.98429000       4.63521000       1.18791000      
O        3.01345000       0.94577000       1.19273000      
O        3.37464000       2.76973000       5.96555000      
O        3.90854000      -1.01207000       5.81093000      
O        4.11551000       5.02797000       3.62675000      
O        4.38970000       0.15032400       3.38308000      
O        4.61895000       2.65238000       2.49245000      
O        5.32310000      -2.85222000       8.20350000      
O        5.35127000       0.81622800       8.41609000      
O        5.57178000       4.67719000       1.28488000      
O        5.59110000       0.78375700       1.01171000      
O        6.38174000       2.64053000       6.91114000      
O        6.59964000       0.07398810       6.17257000      
O        6.75354000       5.00096000       5.89710000      
O        6.99862000      -0.77805500       3.73393000      
O        7.47926000       2.80550000       3.63406000      
O        7.90093000       0.88323400       8.38069000      
O        7.90373000       4.52616000       8.30946000      
O        8.59713000       4.55044000       1.13181000      
O        8.67762000       0.84290200       1.07848000      
O        9.01476000      -0.96779400       5.81723000      
O        9.46175000       3.03702000       5.76885000      
O        9.68548000       1.22133000       3.53663000      
O        9.88110000       3.86169000       3.29756000      
O       10.14500000      -1.08902000       2.50333000      
H        0.54260100       3.09365000       3.70083000      
H        4.86735000      -0.90563600       6.02872000      
H        6.00023000      -0.48507700       3.64183000      
H       10.31240000       3.42723000       5.71778000      