104
Lattice="6.8064 0.0 0.0 -4.110446609 6.204676621 0.0 0.625289135 0.845051123 28.212521555000002" Properties=species:S:1:pos:R:3:forces:R:3 energy=-655.51575629 pbc="T T T"
Ca      -6.31599000       6.20844000      22.19230000       0.78790900      -0.03189400      -0.34915100
Ca      -6.08045000       5.95389000      13.95170000      -0.25262300      -0.68244900       0.91045700
Ca      -4.18946000       3.18559000      21.87340000      -0.26656900      -0.67393300       0.23580300
Ca      -4.11106000       5.24582000       7.96930000       1.27046200       0.20839900      -0.56727300
Ca      -2.70041000       6.03085000      19.91150000      -0.30580000       0.27433600       0.61630800
Ca      -1.81847000       2.27606000       8.09232000      -0.26914500       0.07110200      -0.83236500
Ca      -0.89903200       2.55444000      -0.17456400       0.92291600      -0.73589800      -0.60146200
Ca      -0.83649200       2.84869000      19.88760000       0.93753200       0.56139200       0.70427700
Ca      -0.59809200       5.23932000       5.85657000      -0.34842900      -0.05829000       0.82870600
Ca       1.45404000       2.00107000       5.79571000      -0.12870900       0.36258500       0.93295600
Si      -6.09695000       6.25106000      19.16750000       0.36026800      -0.83248100       1.24023800
Si      -4.22805000       5.03296000      16.92620000      -1.63352500      -0.91479500      -2.03069800
Si      -4.11225000       5.54184000       4.78175000       0.90004600       0.05486600       0.57843700
Si      -3.82138000       2.60273000      18.87120000      -0.47238300       1.86930700       1.83768300
Si      -3.41965000       1.11996000      11.13850000      -0.35679000      -0.47133500       2.40282100
Si      -2.54420000       6.01606000      22.92080000      -0.79452700       1.07121400      -0.68287100
Si      -2.15086000       4.27556000       2.77963000       0.74462000       0.20744200      -3.95527400
Si      -1.74299000       1.99299000       4.85612000       1.27562900       0.22748300       1.68731700
Si      -0.82048100       3.33016000      22.99850000       1.64203700      -1.60264200      -2.88511700
Si      -0.21213900       5.11512000       8.99285000      -3.16970600      -0.17589600      -1.26324200
Si       1.19933000       2.03641000      25.08060000      -0.84557700       0.06714900       2.26280400
Si       1.48160000       2.44332000       9.03455000      -0.44499600      -2.00605800      -2.71710300
O       -7.50942000       7.22348000      12.75930000      -0.50891200       0.16671900      -1.73878600
O       -6.33250000       6.15299000       8.01512000       1.49843200       0.42672900      -0.69021900
O       -5.46317000       6.60658000      24.64240000      -0.29100300      -0.84909000       0.18624300
O       -5.45617000       3.46518000       0.45946300      -1.80339300      -1.97989600       2.77291000
O       -5.41229000       5.57353000      17.83230000      -1.38207100       0.92112300       0.73308700
O       -5.07796000       4.55007000       5.57921000      -1.44565600      -0.80453900      -0.66039900
O       -4.90728000       6.81938000      20.14500000      -0.84258100      -1.17341500      -0.59495300
O       -4.86493000       2.63995000       3.22405000      -2.67651800       0.36728600       0.48556600
O       -4.66334000       7.05443000       4.56107000      -1.73314300       0.74225200      -1.50999800
O       -4.59512000       5.21109000      15.33650000       0.68016800      -0.91310400       1.63708900
O       -4.30976000       7.15992000      12.81540000       0.97373100      -2.29632400      -1.48425700
O       -4.26249000       2.74114000       7.88491000       2.16841300       1.13862200       0.13791000
O       -4.12366000       3.47434000      17.47150000       0.51260300      -1.25729400      -0.99758400
O       -3.88048000       5.39653000      22.17440000       1.48703200       0.73557600       1.43771900
O       -3.51609000       5.03662000       3.29998000      -0.97973100       0.26736500       0.22588000
O       -3.46885000       5.21165000      10.66820000      -0.67638300       1.80646500      -0.42239600
O       -3.45789000       4.79643000      -0.76174900      -0.50434600       1.63990900      -0.42855800
O       -3.25160000       3.59292000      13.90420000       1.06272100      -0.99906600      -0.90943600
O       -3.13565000       3.60705000      19.96590000       1.15419200       1.06200200      -1.09610600
O       -3.08559000       1.52942000       5.54359000      -1.25851900      -1.74285500      -0.43337400
O       -2.96517000       5.88373000       5.84159000       2.14378800      -0.11842500       0.56593100
O       -2.92176000       6.78879000      24.38270000       0.90097700      -2.05237700      -1.07536100
O       -2.91173000       1.16088000      -0.99616600      -0.21510300       0.02277700       0.36086500
O       -2.86840000       5.78164000      17.36960000       1.78287300       0.68817500       0.08708900
O       -2.59592000       1.51090000      18.68130000      -1.20790400      -0.10712200      -1.79689200
O       -2.23100000       1.51843000      15.56980000      -0.05671000      -0.75284600       1.70993200
O       -2.16880000       2.07203000      10.73170000      -3.71209200       1.56471200      -5.67418200
O       -2.06624000       2.84827000       3.51593000       0.20113400      -1.02774000       0.00965600
O       -1.96081000       3.95950000       1.17225000      -0.18851700       0.71706500       3.03595800
O       -1.86021000       2.31399000      22.29670000      -0.75413300       0.12465400       1.00079300
O       -1.73750000       7.10336000      21.96100000      -0.38634800      -1.82470000       1.01441100
O       -1.61476000       4.61976000       8.25527000       1.09687800      -0.36512600       0.91081200
O       -1.42241000       4.81913000      23.26140000      -0.32118600       0.89794100       1.07908000
O       -0.97234200       5.28380000       3.42234000       0.11736400       0.77558800       0.52427700
O       -0.95335400       2.86230000       5.96498000       0.89465100       1.21299100       0.07757100
O       -0.91264500       4.50473000      15.15350000      -1.63804000      -0.35470400      -1.06910700
O       -0.59842300       0.84967100       1.55977000      -0.17131200       0.14485000      -0.10969100
O       -0.57278100       5.88427000      10.40130000       0.03317300      -0.71241100       0.84088200
O       -0.39386000       5.27124000      19.91790000       0.64977600       1.44759400      -1.35907200
O       -0.36952400       4.88241000      26.25850000       0.90127000       0.63685100      -1.64514800
O       -0.13967700       2.97708000      17.35210000      -0.43687900       0.83134500       0.39903000
O       -0.11063800       2.71834000      24.38410000      -1.77523900       1.53753300      -0.41129900
O        0.35311100       3.49750000      21.84900000      -0.11034400       0.77299900       1.48778100
O        0.49193500       1.43105000       8.20436000      -1.05117100      -0.01212000       1.54260300
O        0.63871200       4.03227000      12.20510000       1.74385000      -2.15622600       1.23890400
O        0.82488000       3.89464000       9.36660000      -0.57445600       0.79210500       0.97353300
O        0.97067800       1.97585000      26.68330000       0.27035200      -0.04196600      -0.97954400
O        1.61553000       2.19410000      19.58700000      -0.20545500      -1.12055800      -1.12773200
O        2.12426000       1.86296000      10.43200000      -0.88843200       0.36102100       0.63864400
O        2.46860000       2.93566000      24.60840000       2.09663300       0.68540700       1.18945900
H       -7.57343000       6.86353000      -0.37567300      -0.29806500       0.35293900       0.68907600
H       -5.27260000       7.56817000      24.51500000      -0.17868500       0.02382100       0.04752400
H       -5.17952000       3.21725000       1.41267000      -0.36265100       0.48221700      -1.78244300
H       -4.93815000       3.51199000       3.68992000      -0.28503100      -0.23342200      -0.42855000
H       -4.79624000       4.04527000       0.09643650       1.91365600       1.35273800      -1.07267000
H       -4.50480000       6.27629000      24.68170000      -0.86628300       0.15098200       0.06866800
H       -4.41464000       6.25928000       2.05294000       0.11082700       0.02535000      -0.40264200
H       -3.98670000       3.85514000      14.51990000      -0.28815300       0.55895400       0.03533200
H       -3.94674000       2.48448000       3.32322000       2.46400200      -0.59771900      -0.06124800
H       -3.86775000       6.82489000      11.95980000      -0.74021200       0.11636300       1.61154600
H       -3.75306000       3.07527000      25.43030000      -0.78922800       0.07527200      -1.45231700
H       -3.53796000       5.82473000      -1.03192000       0.11926200      -1.51616900       0.40677400
H       -3.39139000       2.73874000      13.39030000      -0.30228000       0.22795700       0.65499100
H       -3.32653000       4.28618000      10.82420000       0.58780800      -1.15547200       0.50550100
H       -2.68787000       1.69520000      16.44090000       0.58694700      -0.68036500      -0.39636700
H       -2.64519000       5.69773000      10.89250000       0.01284800      -0.82256600      -0.39978900
H       -2.62810000       4.67354000      -0.23386200      -0.77327300       0.24575700       0.01441500
H       -2.47250000       2.31102000      15.10570000      -0.59506300       1.44956700      -1.24546800
H       -2.35941000       1.39088000      26.47870000       0.63885000      -0.14982100      -1.03237800
H       -2.13938000       5.54765000      16.75210000       0.07534300       0.32771700       0.19442100
H       -1.71103000       4.07526000      14.67040000       0.71463800       1.03123300       0.04778600
H       -1.51573000       2.01966000      11.31000000       5.17192100      -0.22472000       4.29904400
H       -1.34793000       6.19805000       3.49054000       0.42160100      -0.49601600      -0.24016200
H       -0.92180500       3.97909000      15.97480000       1.02031700      -0.18670300       0.78042100
H       -0.86840000       1.46371000       2.25865000      -0.08286900       0.08523600       0.43747300
H       -0.51544200       4.43889000      25.35870000       0.10090100       0.52611200       1.30177700
H       -0.39668100       1.84742000      12.61090000      -0.01610200       2.41646800       0.10997900
H       -0.20477700       2.22464000      16.75060000       0.36652500      -0.48119000      -0.03732400
H        0.25199200       5.64038000      26.00640000      -0.54641500      -1.05153700       0.09660200
H        0.36086500       4.55191000      11.46610000      -0.54702800       0.85165700      -1.51944500
H        0.80917700       3.24568000      17.50570000      -0.38355100      -0.60964800      -0.39984100
H        1.37034000       3.41180000      11.84600000      -1.37763100       1.28964600       0.72653800